data_image0
_chemical_formula_structural       PtCuPtAlPt3CuAuCuPtAgPtAgAlAg3AuAlCuAlAgAl2PtAgCuAlAu4CuAuCuH
_chemical_formula_sum              "Pt8 Cu7 Al7 Au7 Ag7 H1"
_cell_length_a       8.548921
_cell_length_b       8.548920957026624
_cell_length_c       27.880165
_cell_angle_alpha    90.0
_cell_angle_beta     90.0
_cell_angle_gamma    60.00000370317908

_space_group_name_H-M_alt    "P 1"
_space_group_IT_number       1

loop_
  _space_group_symop_operation_xyz
  'x, y, z'

loop_
  _atom_site_type_symbol
  _atom_site_label
  _atom_site_symmetry_multiplicity
  _atom_site_fract_x
  _atom_site_fract_y
  _atom_site_fract_z
  _atom_site_occupancy
  Pt  Pt1       1.0  0.0  0.0  0.35867793465354314  1.0000
  Cu  Cu1       1.0  0.3333332943420579  0.0  0.35867793465354314  1.0000
  Pt  Pt2       1.0  0.6666667056579421  0.0  0.35867793465354314  1.0000
  Al  Al1       1.0  0.0  0.3333333333333333  0.35867793465354314  1.0000
  Pt  Pt3       1.0  0.33333329434205794  0.3333333333333333  0.35867793465354314  1.0000
  Pt  Pt4       1.0  0.666666705657942  0.3333333333333333  0.35867793465354314  1.0000
  Pt  Pt5       1.0  0.0  0.6666666666666666  0.35867793465354314  1.0000
  Cu  Cu2       1.0  0.3333334113158842  0.6666666666666666  0.35867793465354314  1.0000
  Au  Au1       1.0  0.6666667056579421  0.6666666666666666  0.35867793465354314  1.0000
  Cu  Cu3       1.0  0.1111111206256393  0.11111106608786583  0.44213231880083925  1.0000
  Pt  Pt6       1.0  0.44444441496769727  0.11111106608786583  0.44213231880083925  1.0000
  Ag  Ag1       1.0  0.7777778262835814  0.11111106608786583  0.44213231880083925  1.0000
  Pt  Pt7       1.0  0.11111112062563928  0.4444443994211992  0.44213231880083925  1.0000
  Ag  Ag2       1.0  0.44444453194152345  0.4444443994211992  0.44213231880083925  1.0000
  Al  Al2       1.0  0.7777778262835814  0.4444443994211992  0.44213231880083925  1.0000
  Ag  Ag3       1.0  0.11111112062563937  0.7777777327545324  0.44213231880083925  1.0000
  Ag  Ag4       1.0  0.44444453194152345  0.7777777327545324  0.44213231880083925  1.0000
  Ag  Ag5       1.0  0.7777778262835815  0.7777777327545324  0.44213231880083925  1.0000
  Au  Au2       1.0  0.8689342083379266  0.2671844159780474  0.5223716932808683  1.0000
  Al  Al3       1.0  0.23973254640995534  0.21093948700244194  0.5127676611669981  1.0000
  Cu  Cu4       1.0  0.5647415363611872  0.2243474544690051  0.5233493058595601  1.0000
  Al  Al4       1.0  0.909529215117748  0.5636491142194259  0.5238143676696319  1.0000
  Ag  Ag6       1.0  0.22983570988950802  0.5631393610364063  0.5269936171468139  1.0000
  Al  Al5       1.0  0.5370981162130677  0.5836345726116665  0.5301147607985821  1.0000
  Al  Al6       1.0  0.9118103976155122  0.9195589486874125  0.5308734722337548  1.0000
  Pt  Pt8       1.0  0.22077697418124403  0.9171965790077587  0.5276678957961691  1.0000
  Ag  Ag7       1.0  0.5769549653426903  0.8882819305193175  0.5261516924308016  1.0000
  Cu  Cu5       1.0  0.9947948461511856  0.031474490121877474  0.6084088455000176  1.0000
  Al  Al7       1.0  0.31965845253262226  0.0073186185661726225  0.6063131979312175  1.0000
  Au  Au3       1.0  0.7003312039373576  0.9914791257152111  0.6100406866315174  1.0000
  Au  Au4       1.0  0.989604491856861  0.3590321064814158  0.6118884518796786  1.0000
  Au  Au5       1.0  0.3396637567646837  0.29462747969462894  0.6004265756676835  1.0000
  Au  Au6       1.0  0.6528909202231375  0.3583121847894459  0.6128491707276481  1.0000
  Cu  Cu6       1.0  0.9985831590658513  0.6765309445440133  0.602185962672746  1.0000
  Au  Au7       1.0  0.3168594447461546  0.7068978628320909  0.6167507258296356  1.0000
  Cu  Cu7       1.0  0.6766779478130023  0.6791427880257437  0.6040570419866597  1.0000
  H   H1        1.0  0.45717641485310306  0.513234875600098  0.6517694927558715  1.0000
